**********
* Littelfuse, LP
* TVS Diode SPICE Models
* 15KPAxxxA Family
*
* T. Chenoski
* Irving Technical Center
* 
* v2 04/23/08
*
**********
**********
.SUBCKT 15KPA17A     1   2
*       TERMINALS:   A   K
Done    1            3   Dtvs
Dtwo    3            2   Dtvs
Rleak   1            2   0.007meg
.MODEL  Dtvs         D   (IS=1.0e-5 RS=0.0067 N=1.5 IBV=10m BV=10.44 CJO=4000p)
.ENDS

.SUBCKT 15KPA18A     1   2
*       TERMINALS:   A   K
Done    1            3   Dtvs
Dtwo    3            2   Dtvs
Rleak   1            2   0.007meg
.MODEL  Dtvs         D   (IS=1.0e-5 RS=0.0074 N=1.5 IBV=10m BV=11.06 CJO=4000p)
.ENDS

.SUBCKT 15KPA20A     1   2
*       TERMINALS:   A   K
Done    1            3   Dtvs
Dtwo    3            2   Dtvs
Rleak   1            2   0.027meg
.MODEL  Dtvs         D   (IS=1.0e-5 RS=0.0091 N=1.5 IBV=10m BV=12.29 CJO=4000p)
.ENDS

.SUBCKT 15KPA22A     1   2
*       TERMINALS:   A   K
Done    1            3   Dtvs
Dtwo    3            2   Dtvs
Rleak   1            2   0.088meg
.MODEL  Dtvs         D   (IS=1.0e-5 RS=0.0101 N=1.5 IBV=10m BV=13.51 CJO=4000p)
.ENDS

.SUBCKT 15KPA24A     1   2
*       TERMINALS:   A   K
Done    1            3   Dtvs
Dtwo    3            2   Dtvs
Rleak   1            2   0.320meg
.MODEL  Dtvs         D   (IS=1.0e-5 RS=0.0124 N=1.5 IBV=10m BV=14.75 CJO=4000p)
.ENDS

.SUBCKT 15KPA26A     1   2
*       TERMINALS:   A   K
Done    1            3   Dtvs
Dtwo    3            2   Dtvs
Rleak   1            2   1.040meg
.MODEL  Dtvs         D   (IS=1.0e-5 RS=0.0144 N=1.5 IBV=10m BV=15.97 CJO=4000p)
.ENDS

.SUBCKT 15KPA28A     1   2
*       TERMINALS:   A   K
Done    1            3   Dtvs
Dtwo    3            4   Dtvs
Dthr    4            2   Dtvs
Rleak   1            2   2.240meg
.MODEL  Dtvs         D   (IS=1.0e-5 RS=0.0112 N=1.5 IBV=10m BV=11.47 CJO=4000p)
.ENDS

.SUBCKT 15KPA30A     1   2
*       TERMINALS:   A   K
Done    1            3   Dtvs
Dtwo    3            4   Dtvs
Dthr    4            2   Dtvs
Rleak   1            2   4.000meg
.MODEL  Dtvs         D   (IS=1.0e-5 RS=0.0127 N=1.5 IBV=10m BV=12.29 CJO=4000p)
.ENDS

.SUBCKT 15KPA33A     1   2
*       TERMINALS:   A   K
Done    1            3   Dtvs
Dtwo    3            4   Dtvs
Dthr    4            2   Dtvs
Rleak   1            2   33meg
.MODEL  Dtvs         D   (IS=1.0e-5 RS=0.0137 N=1.5 IBV=10m BV=13.53 CJO=4000p)
.ENDS

.SUBCKT 15KPA36A     1   2
*       TERMINALS:   A   K
Done    1            3   Dtvs
Dtwo    3            4   Dtvs
Dthr    4            2   Dtvs
Rleak   1            2   36meg
.MODEL  Dtvs         D   (IS=1.0e-5 RS=0.0166 N=1.5 IBV=10m BV=14.74 CJO=4000p)
.ENDS

.SUBCKT 15KPA40A     1   2
*       TERMINALS:   A   K
Done    1            3   Dtvs
Dtwo    3            4   Dtvs
Dthr    4            2   Dtvs
Rleak   1            2   40meg
.MODEL  Dtvs         D   (IS=1.0e-5 RS=0.0194 N=1.5 IBV=10m BV=16.39 CJO=4000p)
.ENDS

.SUBCKT 15KPA43A     1   2
*       TERMINALS:   A   K
Done    1            3   Dtvs
Dtwo    3            4   Dtvs
Dthr    4            2   Dtvs
Rleak   1            2   43meg
.MODEL  Dtvs         D   (IS=1.0e-5 RS=0.0208 N=1.5 IBV=10m BV=17.60 CJO=4000p)
.ENDS

.SUBCKT 15KPA45A     1   2
*       TERMINALS:   A   K
Done    1            3   Dtvs
Dtwo    3            4   Dtvs
Dthr    4            2   Dtvs
Rleak   1            2   45meg
.MODEL  Dtvs         D   (IS=1.0e-5 RS=0.0222 N=1.5 IBV=10m BV=18.44 CJO=4000p)
.ENDS

.SUBCKT 15KPA48A     1   2
*       TERMINALS:   A   K
Done    1            3   Dtvs
Dtwo    3            4   Dtvs
Dthr    4            2   Dtvs
Rleak   1            2   48meg
.MODEL  Dtvs         D   (IS=1.0e-5 RS=0.0255 N=1.5 IBV=10m BV=19.65 CJO=4000p)
.ENDS

.SUBCKT 15KPA51A     1   2
*       TERMINALS:   A   K
Done    1            3   Dtvs
Dtwo    3            4   Dtvs
Dthr    4            2   Dtvs
Rleak   1            2   51meg
.MODEL  Dtvs         D   (IS=1.0e-5 RS=0.0294 N=1.5 IBV=10m BV=20.90 CJO=4000p)
.ENDS

.SUBCKT 15KPA54A     1   2
*       TERMINALS:   A   K
Done    1            3   Dtvs
Dtwo    3            4   Dtvs
Dthr    4            2   Dtvs
Rleak   1            2   54meg
.MODEL  Dtvs         D   (IS=1.0e-5 RS=0.0329 N=1.5 IBV=10m BV=22.11 CJO=4000p)
.ENDS

.SUBCKT 15KPA58A     1   2
*       TERMINALS:   A   K
Done    1            3   Dtvs
Dtwo    3            4   Dtvs
Dthr    4            2   Dtvs
Rleak   1            2   58meg
.MODEL  Dtvs         D   (IS=1.0e-5 RS=0.0369 N=1.5 IBV=10m BV=23.76 CJO=4000p)
.ENDS

.SUBCKT 15KPA60A     1   2
*       TERMINALS:   A   K
Done    1            3   Dtvs
Dtwo    3            4   Dtvs
Dthr    4            2   Dtvs
Rleak   1            2   60meg
.MODEL  Dtvs         D   (IS=1.0e-5 RS=0.0405 N=1.5 IBV=10m BV=24.57 CJO=4000p)
.ENDS

.SUBCKT 15KPA64A     1   2
*       TERMINALS:   A   K
Done    1            3   Dtvs
Dtwo    3            4   Dtvs
Dthr    4            2   Dtvs
Rleak   1            2   64meg
.MODEL  Dtvs         D   (IS=1.0e-5 RS=0.0468 N=1.5 IBV=10m BV=26.22 CJO=4000p)
.ENDS

.SUBCKT 15KPA70A     1   2
*       TERMINALS:   A   K
Done    1            3   Dtvs
Dtwo    3            4   Dtvs
Dthr    4            2   Dtvs
Rleak   1            2   70meg
.MODEL  Dtvs         D   (IS=1.0e-5 RS=0.0549 N=1.5 IBV=10m BV=28.67 CJO=4000p)
.ENDS

.SUBCKT 15KPA75A     1   2
*       TERMINALS:   A   K
Done    1            3   Dtvs
Dtwo    3            4   Dtvs
Dthr    4            2   Dtvs
Rleak   1            2   75meg
.MODEL  Dtvs         D   (IS=1.0e-5 RS=0.0639 N=1.5 IBV=10m BV=30.73 CJO=4000p)
.ENDS

.SUBCKT 15KPA78A     1   2
*       TERMINALS:   A   K
Done    1            3   Dtvs
Dtwo    3            4   Dtvs
Dthr    4            2   Dtvs
Rleak   1            2   78meg
.MODEL  Dtvs         D   (IS=1.0e-5 RS=0.0932 N=1.5 IBV=10m BV=31.94 CJO=4000p)
.ENDS

.SUBCKT 15KPA85A     1   2
*       TERMINALS:   A   K
Done    1            3   Dtvs
Dtwo    3            4   Dtvs
Dthr    4            2   Dtvs
Rleak   1            2   85meg
.MODEL  Dtvs         D   (IS=1.0e-5 RS=0.0800 N=1.5 IBV=10m BV=34.80 CJO=4000p)
.ENDS

.SUBCKT 15KPA90A     1   2
*       TERMINALS:   A   K
Done    1            3   Dtvs
Dtwo    3            4   Dtvs
Dthr    4            2   Dtvs
Rleak   1            2   90meg
.MODEL  Dtvs         D   (IS=1.0e-5 RS=0.0893 N=1.5 IBV=10m BV=36.85 CJO=4000p)
.ENDS

.SUBCKT 15KPA100A    1   2
*       TERMINALS:   A   K
Done    1            3   Dtvs
Dtwo    3            4   Dtvs
Dthr    4            2   Dtvs
Rleak   1            2   100meg
.MODEL  Dtvs         D   (IS=1.0e-5 RS=0.1081 N=1.5 IBV=10m BV=40.96 CJO=4000p)
.ENDS

.SUBCKT 15KPA110A    1   2
*       TERMINALS:   A   K
Done    1            3   Dtvs
Dtwo    3            4   Dtvs
Dthr    4            2   Dtvs
Rleak   1            2   110meg
.MODEL  Dtvs         D   (IS=1.0e-5 RS=0.1360 N=1.5 IBV=10m BV=45.06 CJO=4000p)
.ENDS

.SUBCKT 15KPA120A    1   2
*       TERMINALS:   A   K
Done    1            3   Dtvs
Dtwo    3            4   Dtvs
Dthr    4            2   Dtvs
Rleak   1            2   120meg
.MODEL  Dtvs         D   (IS=1.0e-5 RS=0.1498 N=1.5 IBV=10m BV=49.13 CJO=4000p)
.ENDS

.SUBCKT 15KPA130A    1   2
*       TERMINALS:   A   K
Done    1            3   Dtvs
Dtwo    3            4   Dtvs
Dthr    4            2   Dtvs
Rleak   1            2   130meg
.MODEL  Dtvs         D   (IS=1.0e-5 RS=0.1755 N=1.5 IBV=10m BV=53.24 CJO=4000p)
.ENDS

.SUBCKT 15KPA150A    1   2
*       TERMINALS:   A   K
Done    1            3   Dtvs
Dtwo    3            4   Dtvs
Dthr    4            2   Dtvs
Rleak   1            2   150meg
.MODEL  Dtvs         D   (IS=1.0e-5 RS=0.2428 N=1.5 IBV=10m BV=61.45 CJO=4000p)
.ENDS

.SUBCKT 15KPA160A    1   2
*       TERMINALS:   A   K
Done    1            3   Dtvs
Dtwo    3            4   Dtvs
Dthr    4            2   Dtvs
Rleak   1            2   160meg
.MODEL  Dtvs         D   (IS=1.0e-5 RS=0.2803 N=1.5 IBV=10m BV=65.52 CJO=4000p)
.ENDS

.SUBCKT 15KPA170A    1   2
*       TERMINALS:   A   K
Done    1            3   Dtvs
Dtwo    3            4   Dtvs
Dthr    4            2   Dtvs
Rleak   1            2   170meg
.MODEL  Dtvs         D   (IS=1.0e-5 RS=0.3019 N=1.5 IBV=10m BV=69.63 CJO=4000p)
.ENDS

.SUBCKT 15KPA180A    1   2
*       TERMINALS:   A   K
Done    1            3   Dtvs
Dtwo    3            4   Dtvs
Dthr    4            2   Dtvs
Rleak   1            2   180meg
.MODEL  Dtvs         D   (IS=1.0e-5 RS=0.3369 N=1.5 IBV=10m BV=73.74 CJO=4000p)
.ENDS

.SUBCKT 15KPA200A    1   2
*       TERMINALS:   A   K
Done    1            3   Dtvs
Dtwo    3            4   Dtvs
Dthr    4            2   Dtvs
Rleak   1            2   200meg
.MODEL  Dtvs         D   (IS=1.0e-5 RS=0.4045 N=1.5 IBV=10m BV=81.91 CJO=4000p)
.ENDS

.SUBCKT 15KPA220A    1   2
*       TERMINALS:   A   K
Done    1            3   Dtvs
Dtwo    3            4   Dtvs
Dthr    4            2   Dtvs
Rleak   1            2   220meg
.MODEL  Dtvs         D   (IS=1.0e-5 RS=1.2964 N=1.5 IBV=10m BV=90.09 CJO=4000p)
.ENDS

.SUBCKT 15KPA240A    1   2
*       TERMINALS:   A   K
Done    1            3   Dtvs
Dtwo    3            4   Dtvs
Dthr    4            2   Dtvs
Rleak   1            2   240meg
.MODEL  Dtvs         D   (IS=1.0e-5 RS=0.5976 N=1.5 IBV=10m BV=98.30 CJO=4000p)
.ENDS

.SUBCKT 15KPA260A    1   2
*       TERMINALS:   A   K
Done    1            3   Dtvs
Dtwo    3            4   Dtvs
Dthr    4            2   Dtvs
Rleak   1            2   260meg
.MODEL  Dtvs         D   (IS=1.0e-5 RS=0.7037 N=1.5 IBV=10m BV=106.48 CJO=4000p)
.ENDS

.SUBCKT 15KPA280A    1   2
*       TERMINALS:   A   K
Done    1            3   Dtvs
Dtwo    3            4   Dtvs
Dthr    4            2   Dtvs
Rleak   1            2   280meg
.MODEL  Dtvs         D   (IS=1.0e-5 RS=0.8805 N=1.5 IBV=10m BV=114.69 CJO=4000p)
.ENDS
